
OS:Version,
  {e1719bc7-c4d7-496b-8438-85de8b54b258}, !- Handle
  2.4.0;                                  !- Version Identifier

OS:ClimateZones,
  {8a3ac41c-57d4-48e4-a48e-1f232e262211}, !- Handle
  ,                                       !- Active Institution
  ,                                       !- Active Year
  ASHRAE,                                 !- Climate Zone Institution Name 1
  ANSI/ASHRAE Standard 169,               !- Climate Zone Document Name 1
  2006,                                   !- Climate Zone Document Year 1
  ,                                       !- Climate Zone Value 1
  CEC,                                    !- Climate Zone Institution Name 2
  California Climate Zone Descriptions,   !- Climate Zone Document Name 2
  1995,                                   !- Climate Zone Document Year 2
  ;                                       !- Climate Zone Value 2

OS:LifeCycleCost:Parameters,
  {1d4d0f18-e6dd-45c8-896c-f4f2a89e6ae5}, !- Handle
  FEMP,                                   !- Analysis Type
  ,                                       !- Discounting Convention
  ,                                       !- Inflation Approach
  ,                                       !- Real Discount Rate
  ,                                       !- Nominal Discount Rate
  ,                                       !- Inflation
  ,                                       !- Base Date Month
  ,                                       !- Base Date Year
  ,                                       !- Service Date Month
  ,                                       !- Service Date Year
  ,                                       !- Length of Study Period in Years
  ,                                       !- Tax Rate
  ,                                       !- Depreciation Method
  Yes;                                    !- Use NIST Fuel Escalation Rates

OS:YearDescription,
  {c1349a5a-d7e1-4ed9-8e5b-24480649c25c}; !- Handle

OS:RadianceParameters,
  {8297fd56-36de-4b79-a182-b7636f4ae3e3}, !- Handle
  1,                                      !- Accumulated Rays per Record
  0,                                      !- Direct Threshold
  1,                                      !- Direct Certainty
  1,                                      !- Direct Jitter
  1,                                      !- Direct Pretest
  6,                                      !- Ambient Bounces VMX
  2,                                      !- Ambient Bounces DMX
  4050,                                   !- Ambient Divisions VMX
  512,                                    !- Ambient Divisions DMX
  256,                                    !- Ambient Supersamples
  0.001,                                  !- Limit Weight VMX
  0.001,                                  !- Limit Weight DMX
  500,                                    !- Klems Sampling Density
  146;                                    !- Sky Discretization Resolution

OS:SimulationControl,
  {7c57f4fc-548f-44e7-a438-1feca6a75629}; !- Handle

OS:Sizing:Parameters,
  {ee365675-827e-489e-9a24-0f596988dec4}, !- Handle
  1.25,                                   !- Heating Sizing Factor
  1.15;                                   !- Cooling Sizing Factor

OS:ProgramControl,
  {8a7b938e-cdcb-40af-82b1-79c267c36bae}; !- Handle

OS:Timestep,
  {31824a36-2f0f-4919-a534-cdb00e20d2e0}, !- Handle
  6;                                      !- Number of Timesteps per Hour

OS:OutputControl:ReportingTolerances,
  {275082a5-6cfd-4756-972e-8810ab253e29}; !- Handle

OS:ConvergenceLimits,
  {fcca1605-8471-4f2f-a485-a59582311771}; !- Handle

OS:ShadowCalculation,
  {d875de65-75c7-4d9d-883e-07bd79421b67}, !- Handle
  7,                                      !- Calculation Frequency
  15000;                                  !- Maximum Figures in Shadow Overlap Calculations

OS:SurfaceConvectionAlgorithm:Inside,
  {5add9a33-b760-4e82-a0f9-3ae0e369b9c4}, !- Handle
  TARP;                                   !- Algorithm

OS:SurfaceConvectionAlgorithm:Outside,
  {0257be16-14fc-418e-bc73-178201ccc4ec}, !- Handle
  DOE-2;                                  !- Algorithm

OS:HeatBalanceAlgorithm,
  {5a22c4c4-a6a6-4769-b0a8-f79498f98a6d}, !- Handle
  ConductionTransferFunction,             !- Algorithm
  200;                                    !- Surface Temperature Upper Limit {C}

OS:ZoneAirHeatBalanceAlgorithm,
  {24c912f8-6f7f-4792-8ea0-a8d47b3c41a1}, !- Handle
  AnalyticalSolution;                     !- Algorithm

OS:ZoneAirContaminantBalance,
  {07e7d420-4b9b-4760-8a70-01b36aa6074f}; !- Handle

OS:ZoneCapacitanceMultiplier:ResearchSpecial,
  {91056672-db13-4057-9cb7-7ac44d24bfc5}, !- Handle
  ,                                       !- Temperature Capacity Multiplier
  ,                                       !- Humidity Capacity Multiplier
  ;                                       !- Carbon Dioxide Capacity Multiplier

OS:RunPeriod,
  {17c33f47-c9b9-463a-84bc-12596f349148}, !- Handle
  Run Period 1,                           !- Name
  1,                                      !- Begin Month
  1,                                      !- Begin Day of Month
  12,                                     !- End Month
  31,                                     !- End Day of Month
  ,                                       !- Use Weather File Holidays and Special Days
  ,                                       !- Use Weather File Daylight Saving Period
  ,                                       !- Apply Weekend Holiday Rule
  ,                                       !- Use Weather File Rain Indicators
  ,                                       !- Use Weather File Snow Indicators
  ;                                       !- Number of Times Runperiod to be Repeated

OS:Building,
  {e0ce3521-4e53-4eca-8017-2f1c8dec2b50}, !- Handle
  PKOM4,                                  !- Name
  Residential,                            !- Building Sector Type
  0,                                      !- North Axis {deg}
  6.76791955811492e-017,                  !- Nominal Floor to Floor Height {m}
  ,                                       !- Space Type Name
  {a3d7b859-bf88-45ff-a75c-4fd681f5add3}, !- Default Construction Set Name
  ,                                       !- Default Schedule Set Name
  ,                                       !- Standards Number of Stories
  ,                                       !- Standards Number of Above Ground Stories
  MidriseApartment,                       !- Standards Building Type
  ,                                       !- Standards Number of Living Units
  ,                                       !- Relocatable
  ;                                       !- Nominal Floor to Ceiling Height {m}

OS:Facility,
  {b6e6be84-f909-42a5-9deb-ef70c0296721}; !- Handle

OS:Site,
  {f38b0e3c-04e1-4822-940e-9b46c436222c}, !- Handle
  Site 1,                                 !- Name
  ,                                       !- Latitude {deg}
  ,                                       !- Longitude {deg}
  ,                                       !- Time Zone {hr}
  ,                                       !- Elevation {m}
  ;                                       !- Terrain

OS:Space,
  {2d2f326b-3287-4078-946c-6ab7ce8c631b}, !- Handle
  EG_TOP1_SZ1,                            !- Name
  {95b75e8a-6102-4c22-96d6-e5451987b992}, !- Space Type Name
  {a3d7b859-bf88-45ff-a75c-4fd681f5add3}, !- Default Construction Set Name
  ,                                       !- Default Schedule Set Name
  30,                                     !- Direction of Relative North {deg}
  7.2370754747207,                        !- X Origin {m}
  21.7591333698683,                       !- Y Origin {m}
  0,                                      !- Z Origin {m}
  {a3b39bf1-12eb-40e3-bbb1-a46ab6dc2e30}, !- Building Story Name
  {1b432729-ea17-4cf2-865a-c38659aebe1b}, !- Thermal Zone Name
  ,                                       !- Part of Total Floor Area
  ,                                       !- Design Specification Outdoor Air Object Name
  ;                                       !- Building Unit Name

OS:Surface,
  {e39012f1-1d67-4452-99a9-b7c16a5644bf}, !- Handle
  Surface 9,                              !- Name
  Wall,                                   !- Surface Type
  ,                                       !- Construction Name
  {2d2f326b-3287-4078-946c-6ab7ce8c631b}, !- Space Name
  Surface,                                !- Outside Boundary Condition
  {b2101619-ce73-42cd-8707-b5925f1e9b75}, !- Outside Boundary Condition Object
  NoSun,                                  !- Sun Exposure
  NoWind,                                 !- Wind Exposure
  ,                                       !- View Factor to Ground
  ,                                       !- Number of Vertices
  3.66, 0, 2.9,                           !- X,Y,Z Vertex 1 {m}
  3.66, 0, 0,                             !- X,Y,Z Vertex 2 {m}
  3.66, 3.6, 0,                           !- X,Y,Z Vertex 3 {m}
  3.66, 3.6, 2.9;                         !- X,Y,Z Vertex 4 {m}

OS:Surface,
  {c0888934-91c7-466a-af4e-bfcc38cfb7c2}, !- Handle
  Surface 10,                             !- Name
  Wall,                                   !- Surface Type
  ,                                       !- Construction Name
  {2d2f326b-3287-4078-946c-6ab7ce8c631b}, !- Space Name
  Surface,                                !- Outside Boundary Condition
  {6f4f4719-2070-4201-818c-ba003094a3c3}, !- Outside Boundary Condition Object
  NoSun,                                  !- Sun Exposure
  NoWind,                                 !- Wind Exposure
  ,                                       !- View Factor to Ground
  ,                                       !- Number of Vertices
  0, 0, 2.9,                              !- X,Y,Z Vertex 1 {m}
  0, 0, 0,                                !- X,Y,Z Vertex 2 {m}
  3.66, 0, 0,                             !- X,Y,Z Vertex 3 {m}
  3.66, 0, 2.9;                           !- X,Y,Z Vertex 4 {m}

OS:Surface,
  {f2efa0d8-33db-450b-a099-7c4cac429a11}, !- Handle
  Surface 11,                             !- Name
  Wall,                                   !- Surface Type
  ,                                       !- Construction Name
  {2d2f326b-3287-4078-946c-6ab7ce8c631b}, !- Space Name
  Surface,                                !- Outside Boundary Condition
  {c2681f4d-996f-4398-b18d-4a3984719166}, !- Outside Boundary Condition Object
  NoSun,                                  !- Sun Exposure
  NoWind,                                 !- Wind Exposure
  ,                                       !- View Factor to Ground
  ,                                       !- Number of Vertices
  3.66, 3.6, 2.9,                         !- X,Y,Z Vertex 1 {m}
  3.66, 3.6, 0,                           !- X,Y,Z Vertex 2 {m}
  2.76, 3.6, 0,                           !- X,Y,Z Vertex 3 {m}
  2.76, 3.6, 2.9;                         !- X,Y,Z Vertex 4 {m}

OS:Surface,
  {57f3a334-5893-4b95-9229-4145ace20501}, !- Handle
  Surface 12,                             !- Name
  RoofCeiling,                            !- Surface Type
  ,                                       !- Construction Name
  {2d2f326b-3287-4078-946c-6ab7ce8c631b}, !- Space Name
  Surface,                                !- Outside Boundary Condition
  {109db7be-5911-4b56-b627-277ef04f3ae9}, !- Outside Boundary Condition Object
  NoSun,                                  !- Sun Exposure
  NoWind,                                 !- Wind Exposure
  ,                                       !- View Factor to Ground
  ,                                       !- Number of Vertices
  3.66, 0, 2.9,                           !- X,Y,Z Vertex 1 {m}
  3.66, 3.6, 2.9,                         !- X,Y,Z Vertex 2 {m}
  0, 3.6, 2.9,                            !- X,Y,Z Vertex 3 {m}
  0, 0, 2.9;                              !- X,Y,Z Vertex 4 {m}

OS:Surface,
  {6d84bfa7-e2f7-458c-b55e-a7a76463136f}, !- Handle
  Surface 13,                             !- Name
  Wall,                                   !- Surface Type
  ,                                       !- Construction Name
  {2d2f326b-3287-4078-946c-6ab7ce8c631b}, !- Space Name
  Outdoors,                               !- Outside Boundary Condition
  ,                                       !- Outside Boundary Condition Object
  SunExposed,                             !- Sun Exposure
  WindExposed,                            !- Wind Exposure
  ,                                       !- View Factor to Ground
  ,                                       !- Number of Vertices
  0, 3.6, 2.9,                            !- X,Y,Z Vertex 1 {m}
  0, 3.6, 0,                              !- X,Y,Z Vertex 2 {m}
  0, 0, 0,                                !- X,Y,Z Vertex 3 {m}
  0, 0, 2.9;                              !- X,Y,Z Vertex 4 {m}

OS:Space,
  {6cd73b32-7ff1-40d8-9045-d09d79925dc2}, !- Handle
  EG_TOP1_FL,                             !- Name
  {d834f876-0c03-45b1-a411-65740a116ae8}, !- Space Type Name
  {a3d7b859-bf88-45ff-a75c-4fd681f5add3}, !- Default Construction Set Name
  ,                                       !- Default Schedule Set Name
  30,                                     !- Direction of Relative North {deg}
  10.4067284525717,                       !- X Origin {m}
  19.9291333698683,                       !- Y Origin {m}
  0,                                      !- Z Origin {m}
  {a3b39bf1-12eb-40e3-bbb1-a46ab6dc2e30}, !- Building Story Name
  {1b432729-ea17-4cf2-865a-c38659aebe1b}, !- Thermal Zone Name
  ,                                       !- Part of Total Floor Area
  ,                                       !- Design Specification Outdoor Air Object Name
  ;                                       !- Building Unit Name

OS:Surface,
  {665141bd-cff8-4e4c-9e3e-f9b111a899a2}, !- Handle
  Surface 20,                             !- Name
  Floor,                                  !- Surface Type
  ,                                       !- Construction Name
  {6cd73b32-7ff1-40d8-9045-d09d79925dc2}, !- Space Name
  Ground,                                 !- Outside Boundary Condition
  ,                                       !- Outside Boundary Condition Object
  NoSun,                                  !- Sun Exposure
  NoWind,                                 !- Wind Exposure
  ,                                       !- View Factor to Ground
  ,                                       !- Number of Vertices
  1.69, 3.6, 0,                           !- X,Y,Z Vertex 1 {m}
  1.69, 0, 0,                             !- X,Y,Z Vertex 2 {m}
  0, 0, 0,                                !- X,Y,Z Vertex 3 {m}
  0, 3.6, 0;                              !- X,Y,Z Vertex 4 {m}

OS:Surface,
  {b2101619-ce73-42cd-8707-b5925f1e9b75}, !- Handle
  Surface 21,                             !- Name
  Wall,                                   !- Surface Type
  ,                                       !- Construction Name
  {6cd73b32-7ff1-40d8-9045-d09d79925dc2}, !- Space Name
  Surface,                                !- Outside Boundary Condition
  {e39012f1-1d67-4452-99a9-b7c16a5644bf}, !- Outside Boundary Condition Object
  NoSun,                                  !- Sun Exposure
  NoWind,                                 !- Wind Exposure
  ,                                       !- View Factor to Ground
  ,                                       !- Number of Vertices
  0, 3.6, 2.9,                            !- X,Y,Z Vertex 1 {m}
  0, 3.6, 0,                              !- X,Y,Z Vertex 2 {m}
  0, 0, 0,                                !- X,Y,Z Vertex 3 {m}
  0, 0, 2.9;                              !- X,Y,Z Vertex 4 {m}

OS:Surface,
  {d0a3132e-f2e1-4573-b863-7a786af67f38}, !- Handle
  Surface 22,                             !- Name
  Wall,                                   !- Surface Type
  ,                                       !- Construction Name
  {6cd73b32-7ff1-40d8-9045-d09d79925dc2}, !- Space Name
  Surface,                                !- Outside Boundary Condition
  {8fd58299-0085-44c1-98aa-9ae79bd02e27}, !- Outside Boundary Condition Object
  NoSun,                                  !- Sun Exposure
  NoWind,                                 !- Wind Exposure
  ,                                       !- View Factor to Ground
  ,                                       !- Number of Vertices
  1.69, 3.6, 2.9,                         !- X,Y,Z Vertex 1 {m}
  1.69, 3.6, 0,                           !- X,Y,Z Vertex 2 {m}
  0, 3.6, 0,                              !- X,Y,Z Vertex 3 {m}
  0, 3.6, 2.9;                            !- X,Y,Z Vertex 4 {m}

OS:Surface,
  {9a025b2d-a0f9-4199-860f-d7833a0e799c}, !- Handle
  Surface 23,                             !- Name
  RoofCeiling,                            !- Surface Type
  ,                                       !- Construction Name
  {6cd73b32-7ff1-40d8-9045-d09d79925dc2}, !- Space Name
  Surface,                                !- Outside Boundary Condition
  {8c22ccf5-cf8b-4a49-bc73-25b4e497f571}, !- Outside Boundary Condition Object
  NoSun,                                  !- Sun Exposure
  NoWind,                                 !- Wind Exposure
  ,                                       !- View Factor to Ground
  ,                                       !- Number of Vertices
  1.69, 0, 2.9,                           !- X,Y,Z Vertex 1 {m}
  1.69, 3.6, 2.9,                         !- X,Y,Z Vertex 2 {m}
  0, 3.6, 2.9,                            !- X,Y,Z Vertex 3 {m}
  0, 0, 2.9;                              !- X,Y,Z Vertex 4 {m}

OS:Surface,
  {5386ce6a-19fa-475e-8098-440830bae504}, !- Handle
  Surface 24,                             !- Name
  Wall,                                   !- Surface Type
  ,                                       !- Construction Name
  {6cd73b32-7ff1-40d8-9045-d09d79925dc2}, !- Space Name
  Surface,                                !- Outside Boundary Condition
  {b6f14b09-71a6-46de-94fd-2e12bb05349c}, !- Outside Boundary Condition Object
  NoSun,                                  !- Sun Exposure
  NoWind,                                 !- Wind Exposure
  ,                                       !- View Factor to Ground
  ,                                       !- Number of Vertices
  0, 0, 2.9,                              !- X,Y,Z Vertex 1 {m}
  0, 0, 0,                                !- X,Y,Z Vertex 2 {m}
  1.69, 0, 0,                             !- X,Y,Z Vertex 3 {m}
  1.69, 0, 2.9;                           !- X,Y,Z Vertex 4 {m}

OS:Surface,
  {58629ef3-6e2e-4b31-a220-3027776776ce}, !- Handle
  Surface 25,                             !- Name
  Wall,                                   !- Surface Type
  ,                                       !- Construction Name
  {6cd73b32-7ff1-40d8-9045-d09d79925dc2}, !- Space Name
  Surface,                                !- Outside Boundary Condition
  {cbf73873-a148-459d-964b-4c26536feb2b}, !- Outside Boundary Condition Object
  NoSun,                                  !- Sun Exposure
  NoWind,                                 !- Wind Exposure
  ,                                       !- View Factor to Ground
  ,                                       !- Number of Vertices
  1.69, 2.4, 2.9,                         !- X,Y,Z Vertex 1 {m}
  1.69, 2.4, 0,                           !- X,Y,Z Vertex 2 {m}
  1.69, 3.6, 0,                           !- X,Y,Z Vertex 3 {m}
  1.69, 3.6, 2.9;                         !- X,Y,Z Vertex 4 {m}

OS:Space,
  {cf4236f2-240e-4942-848a-f77757eead7d}, !- Handle
  EG_TOP1_WF,                             !- Name
  {1ef621c6-6aab-4539-9813-63f68905fc3b}, !- Space Type Name
  {a3d7b859-bf88-45ff-a75c-4fd681f5add3}, !- Default Construction Set Name
  ,                                       !- Default Schedule Set Name
  30,                                     !- Direction of Relative North {deg}
  11.4273055891658,                       !- X Origin {m}
  23.4968248234923,                       !- Y Origin {m}
  0,                                      !- Z Origin {m}
  {a3b39bf1-12eb-40e3-bbb1-a46ab6dc2e30}, !- Building Story Name
  {1b432729-ea17-4cf2-865a-c38659aebe1b}, !- Thermal Zone Name
  ,                                       !- Part of Total Floor Area
  ,                                       !- Design Specification Outdoor Air Object Name
  ;                                       !- Building Unit Name

OS:Surface,
  {a9fea920-160a-48b4-834c-377eb053840a}, !- Handle
  Surface 26,                             !- Name
  Floor,                                  !- Surface Type
  ,                                       !- Construction Name
  {cf4236f2-240e-4942-848a-f77757eead7d}, !- Space Name
  Ground,                                 !- Outside Boundary Condition
  ,                                       !- Outside Boundary Condition Object
  NoSun,                                  !- Sun Exposure
  NoWind,                                 !- Wind Exposure
  ,                                       !- View Factor to Ground
  ,                                       !- Number of Vertices
  2.59, 2.7, 0,                           !- X,Y,Z Vertex 1 {m}
  2.59, 0, 0,                             !- X,Y,Z Vertex 2 {m}
  0, 0, 0,                                !- X,Y,Z Vertex 3 {m}
  0, 2.7, 0;                              !- X,Y,Z Vertex 4 {m}

OS:Surface,
  {2c1c86eb-d7f2-4098-98e8-de4eb0df6579}, !- Handle
  Surface 27,                             !- Name
  RoofCeiling,                            !- Surface Type
  ,                                       !- Construction Name
  {cf4236f2-240e-4942-848a-f77757eead7d}, !- Space Name
  Surface,                                !- Outside Boundary Condition
  {8267b505-a5ac-4c1e-a310-023ca9794e8e}, !- Outside Boundary Condition Object
  NoSun,                                  !- Sun Exposure
  NoWind,                                 !- Wind Exposure
  ,                                       !- View Factor to Ground
  ,                                       !- Number of Vertices
  2.59, 0, 2.9,                           !- X,Y,Z Vertex 1 {m}
  2.59, 2.7, 2.9,                         !- X,Y,Z Vertex 2 {m}
  0, 2.7, 2.9,                            !- X,Y,Z Vertex 3 {m}
  0, 0, 2.9;                              !- X,Y,Z Vertex 4 {m}

OS:Surface,
  {74a84d3e-a4a7-4968-8398-1612ad3e922c}, !- Handle
  Surface 28,                             !- Name
  Wall,                                   !- Surface Type
  ,                                       !- Construction Name
  {cf4236f2-240e-4942-848a-f77757eead7d}, !- Space Name
  Surface,                                !- Outside Boundary Condition
  {ce478e15-5d1b-4fcd-afb8-59ea54dba31b}, !- Outside Boundary Condition Object
  NoSun,                                  !- Sun Exposure
  NoWind,                                 !- Wind Exposure
  ,                                       !- View Factor to Ground
  ,                                       !- Number of Vertices
  0, 2.7, 2.9,                            !- X,Y,Z Vertex 1 {m}
  0, 2.7, 0,                              !- X,Y,Z Vertex 2 {m}
  0, 0, 0,                                !- X,Y,Z Vertex 3 {m}
  0, 0, 2.9;                              !- X,Y,Z Vertex 4 {m}

OS:Surface,
  {70a50724-4bc8-4e56-9cce-b8e0269d996e}, !- Handle
  Surface 29,                             !- Name
  Wall,                                   !- Surface Type
  ,                                       !- Construction Name
  {cf4236f2-240e-4942-848a-f77757eead7d}, !- Space Name
  Surface,                                !- Outside Boundary Condition
  {1a98700c-7bf7-4277-b6b6-2c062d04e42c}, !- Outside Boundary Condition Object
  NoSun,                                  !- Sun Exposure
  NoWind,                                 !- Wind Exposure
  ,                                       !- View Factor to Ground
  ,                                       !- Number of Vertices
  2.59, 0, 2.9,                           !- X,Y,Z Vertex 1 {m}
  2.59, 0, 0,                             !- X,Y,Z Vertex 2 {m}
  2.59, 2.7, 0,                           !- X,Y,Z Vertex 3 {m}
  2.59, 2.7, 2.9;                         !- X,Y,Z Vertex 4 {m}

OS:Surface,
  {c4f30938-60db-4ae4-8e62-d1a147c699f9}, !- Handle
  Surface 30,                             !- Name
  Wall,                                   !- Surface Type
  ,                                       !- Construction Name
  {cf4236f2-240e-4942-848a-f77757eead7d}, !- Space Name
  Outdoors,                               !- Outside Boundary Condition
  ,                                       !- Outside Boundary Condition Object
  SunExposed,                             !- Sun Exposure
  WindExposed,                            !- Wind Exposure
  ,                                       !- View Factor to Ground
  ,                                       !- Number of Vertices
  2.59, 2.7, 2.9,                         !- X,Y,Z Vertex 1 {m}
  2.59, 2.7, 0,                           !- X,Y,Z Vertex 2 {m}
  0, 2.7, 0,                              !- X,Y,Z Vertex 3 {m}
  0, 2.7, 2.9;                            !- X,Y,Z Vertex 4 {m}

OS:Surface,
  {8fd58299-0085-44c1-98aa-9ae79bd02e27}, !- Handle
  Surface 31,                             !- Name
  Wall,                                   !- Surface Type
  ,                                       !- Construction Name
  {cf4236f2-240e-4942-848a-f77757eead7d}, !- Space Name
  Surface,                                !- Outside Boundary Condition
  {d0a3132e-f2e1-4573-b863-7a786af67f38}, !- Outside Boundary Condition Object
  NoSun,                                  !- Sun Exposure
  NoWind,                                 !- Wind Exposure
  ,                                       !- View Factor to Ground
  ,                                       !- Number of Vertices
  0.9, 0, 2.9,                            !- X,Y,Z Vertex 1 {m}
  0.9, 0, 0,                              !- X,Y,Z Vertex 2 {m}
  2.59, 0, 0,                             !- X,Y,Z Vertex 3 {m}
  2.59, 0, 2.9;                           !- X,Y,Z Vertex 4 {m}

OS:Space,
  {86791c48-1bf0-4fb4-ae41-4aadef580655}, !- Handle
  EG_TOP2_WZ,                             !- Name
  {8010bbe0-33ef-497d-b6f8-34f99ac9cdd2}, !- Space Type Name
  {a3d7b859-bf88-45ff-a75c-4fd681f5add3}, !- Default Construction Set Name
  ,                                       !- Default Schedule Set Name
  30,                                     !- Direction of Relative North {deg}
  9.24531138496745,                       !- X Origin {m}
  14.5375,                                !- Y Origin {m}
  0,                                      !- Z Origin {m}
  {a3b39bf1-12eb-40e3-bbb1-a46ab6dc2e30}, !- Building Story Name
  {1b432729-ea17-4cf2-865a-c38659aebe1b}, !- Thermal Zone Name
  ,                                       !- Part of Total Floor Area
  ,                                       !- Design Specification Outdoor Air Object Name
  ;                                       !- Building Unit Name

OS:Surface,
  {a76b3511-7e98-478c-8160-7fae3363e3b2}, !- Handle
  Surface 32,                             !- Name
  Floor,                                  !- Surface Type
  ,                                       !- Construction Name
  {86791c48-1bf0-4fb4-ae41-4aadef580655}, !- Space Name
  Ground,                                 !- Outside Boundary Condition
  ,                                       !- Outside Boundary Condition Object
  NoSun,                                  !- Sun Exposure
  NoWind,                                 !- Wind Exposure
  ,                                       !- View Factor to Ground
  ,                                       !- Number of Vertices
  7.7, 4.9, 0,                            !- X,Y,Z Vertex 1 {m}
  7.7, 0, 0,                              !- X,Y,Z Vertex 2 {m}
  0, 0, 0,                                !- X,Y,Z Vertex 3 {m}
  0, 4.9, 0;                              !- X,Y,Z Vertex 4 {m}

OS:Surface,
  {7c075372-abd4-4511-b6d2-6d293a68c90c}, !- Handle
  Surface 33,                             !- Name
  Wall,                                   !- Surface Type
  ,                                       !- Construction Name
  {86791c48-1bf0-4fb4-ae41-4aadef580655}, !- Space Name
  Outdoors,                               !- Outside Boundary Condition
  ,                                       !- Outside Boundary Condition Object
  SunExposed,                             !- Sun Exposure
  WindExposed,                            !- Wind Exposure
  ,                                       !- View Factor to Ground
  ,                                       !- Number of Vertices
  0, 0, 2.9,                              !- X,Y,Z Vertex 1 {m}
  0, 0, 0,                                !- X,Y,Z Vertex 2 {m}
  2.15960493525473, 0, 0,                 !- X,Y,Z Vertex 3 {m}
  2.15960493525473, 0, 2.35,              !- X,Y,Z Vertex 4 {m}
  4.75960493525473, 0, 2.35,              !- X,Y,Z Vertex 5 {m}
  4.75960493525473, 0, 0,                 !- X,Y,Z Vertex 6 {m}
  5.36673732967761, 0, 0,                 !- X,Y,Z Vertex 7 {m}
  5.36673732967761, 0, 2.35,              !- X,Y,Z Vertex 8 {m}
  7.16673732967761, 0, 2.35,              !- X,Y,Z Vertex 9 {m}
  7.16673732967761, 0, 0,                 !- X,Y,Z Vertex 10 {m}
  7.7, 0, 0,                              !- X,Y,Z Vertex 11 {m}
  7.7, 0, 2.9;                            !- X,Y,Z Vertex 12 {m}

OS:Surface,